@<TRIPOS>MOLECULE
Compound
25 25 1 0 1
SMALL
USER_CHARGES
@<TRIPOS>CRYSIN
   12.5130    12.3771     7.4149    90.0000    90.0000    90.0000  1  1
@<TRIPOS>ATOM
       1 C           -0.2264     1.8642     0.3237 lopes_012      1 Compound  -0.130000
       2 C           -0.7608     0.5182    -0.1908 lopes_012      1 Compound  -0.130000
       3 N            1.2364     1.7738     0.2153 lopes_010      1 Compound   0.150000
       4 N            0.4032    -0.1931    -0.7534 lopes_010      1 Compound   0.150000
       5 C            1.4756     0.8123    -0.8730 lopes_011      1 Compound  -0.110000
       6 C            0.7981    -1.3291     0.1045 lopes_014      1 Compound  -0.170000
       7 H           -0.0282    -2.0415     0.1783 lopes_015      1 Compound   0.130000
       8 H            1.0578    -0.9781     1.1075 lopes_015      1 Compound   0.130000
       9 H            1.6624    -1.8386    -0.3305 lopes_015      1 Compound   0.130000
      10 C            1.8701     3.0925    -0.0017 lopes_014      1 Compound  -0.170000
      11 C            3.4082     3.0113     0.1000 lopes_018      1 Compound  -0.120000
      12 H            1.5096     3.7864     0.7633 lopes_015      1 Compound   0.130000
      13 H            1.5828     3.4823    -0.9830 lopes_015      1 Compound   0.130000
      14 C            4.0449     4.4051    -0.0769 lopes_018      1 Compound  -0.120000
      15 H            3.7999     2.3370    -0.6654 lopes_020      1 Compound   0.060000
      16 H            3.6853     2.6033     1.0756 lopes_020      1 Compound   0.060000
      17 C            5.5785     4.3413     0.0466 lopes_019      1 Compound  -0.180000
      18 H            3.6517     5.0891     0.6792 lopes_020      1 Compound   0.060000
      19 H            3.7789     4.8085    -1.0571 lopes_020      1 Compound   0.060000
      20 H            5.8709     3.9718     1.0323 lopes_020      1 Compound   0.060000
      21 H            6.0099     5.3356    -0.0886 lopes_020      1 Compound   0.060000
      22 H            5.9999     3.6784    -0.7127 lopes_020      1 Compound   0.060000
      23 H           -0.5301     2.0469     1.3578 lopes_013      1 Compound   0.210000
      24 H           -1.5031     0.6976    -0.9730 lopes_013      1 Compound   0.210000
      25 H            2.4778     0.3609    -0.8123 lopes_013      1 Compound   0.210000
@<TRIPOS>BOND
       1        1        3 1
       2        1        2 1
       3        1       23 1
       4        2       24 1
       5        2        4 1
       6        5        4 1
       7        5       25 1
       8        5        3 1
       9        6        9 1
      10        6        7 1
      11        6        4 1
      12        6        8 1
      13       10       11 1
      14       10        3 1
      15       10       13 1
      16       10       12 1
      17       11       15 1
      18       11       14 1
      19       11       16 1
      20       14       18 1
      21       14       19 1
      22       14       17 1
      23       17       22 1
      24       17       21 1
      25       17       20 1
@<TRIPOS>SUBSTRUCTURE
       1 Compound        1 RESIDUE    0 1    ROOT      0
