@<TRIPOS>MOLECULE
RES
19 19 1 0 1
SMALL
NO_CHARGES
@<TRIPOS>CRYSIN
   12.9512     8.9440     8.1434    90.0000    90.0000    90.0000  1  1
@<TRIPOS>ATOM
       1 N           -4.3760     3.1449    -2.8085 N             1 RES     
       2 C           -3.1853     3.8648    -2.2706 C             1 RES     
       3 N           -1.8837     3.2244    -2.6161 N             1 RES     
       4 C           -3.7614     1.9907    -2.5454 C             1 RES     
       5 C           -2.4548     2.0320    -2.4452 C             1 RES     
       6 C           -5.6306     3.8852    -2.5798 C             1 RES     
       7 C           -6.8284     3.0990    -3.1389 C             1 RES     
       8 H           -5.5761     4.8584    -3.0757 H             1 RES     
       9 H           -5.7721     4.0439    -1.5069 H             1 RES     
      10 H           -6.7106     2.9309    -4.2120 H             1 RES     
      11 H           -7.7538     3.6559    -2.9769 H             1 RES     
      12 H           -6.9185     2.1302    -2.6422 H             1 RES     
      13 C           -0.7271     4.0106    -2.1540 C             1 RES     
      14 H           -0.7286     4.9939    -2.6321 H             1 RES     
      15 H            0.1974     3.4894    -2.4158 H             1 RES     
      16 H           -0.7703     4.1364    -1.0686 H             1 RES     
      17 H           -4.3179     1.0499    -2.4193 H             1 RES     
      18 H           -1.9750     1.0658    -2.2282 H             1 RES     
      19 H           -3.1923     4.9146    -2.6038 H             1 RES     
@<TRIPOS>BOND
       1        6        7 1
       2       18        5 1
       3        6        9 1
       4        6        8 1
       5       17        4 1
       6        3       13 1
       7        4        1 1
       8        7       10 1
       9        7       11 1
      10       14       13 1
      11        4        5 1
      12        7       12 1
      13        3        5 1
      14        2        1 1
      15        6        1 1
      16        3        2 1
      17       13       16 1
      18       15       13 1
      19       19        2 1
@<TRIPOS>SUBSTRUCTURE
       1 RES             1 RESIDUE    0 **** ROOT      0
