@<TRIPOS>MOLECULE
Compound
31 31 1 0 1
SMALL
USER_CHARGES
@<TRIPOS>CRYSIN
   15.0212    13.1633     7.8669    90.0000    90.0000    90.0000  1  1
@<TRIPOS>ATOM
       1 C            0.5450     2.3325     0.4711 lopes_012      1 Compound  -0.130000
       2 C           -0.0098     0.9006     0.3959 lopes_012      1 Compound  -0.130000
       3 N            2.0052     2.1639     0.5907 lopes_010      1 Compound   0.150000
       4 N            1.1683     0.0171     0.3980 lopes_010      1 Compound   0.150000
       5 C            2.3062     0.8535    -0.0057 lopes_011      1 Compound  -0.110000
       6 C            0.9981    -1.1745    -0.4522 lopes_014      1 Compound  -0.170000
       7 H            0.1438    -1.7603    -0.1020 lopes_015      1 Compound   0.130000
       8 H            1.8962    -1.7962    -0.4018 lopes_015      1 Compound   0.130000
       9 H            0.8267    -0.8764    -1.4905 lopes_015      1 Compound   0.130000
      10 C            2.7799     3.2942     0.0308 lopes_014      1 Compound  -0.170000
      11 C            4.2910     3.1481     0.3112 lopes_017      1 Compound   0.010000
      12 H            2.4266     4.2202     0.4942 lopes_015      1 Compound   0.130000
      13 H            2.6120     3.3617    -1.0480 lopes_015      1 Compound   0.130000
      14 C            5.0550     4.4237    -0.0988 lopes_018      1 Compound  -0.120000
      15 H            4.6889     2.2928    -0.2405 lopes_020      1 Compound   0.060000
      16 H            4.4479     2.9593     1.3764 lopes_020      1 Compound   0.060000
      17 C            6.5736     4.2594     0.1222 lopes_018      1 Compound  -0.120000
      18 H            4.6885     5.2692     0.4891 lopes_020      1 Compound   0.060000
      19 H            4.8622     4.6448    -1.1517 lopes_020      1 Compound   0.060000
      20 H            0.2972     2.8480    -0.4613 lopes_013      1 Compound   0.210000
      21 H           -0.6508     0.6816     1.2540 lopes_013      1 Compound   0.210000
      22 H            3.2542     0.4453     0.3766 lopes_013      1 Compound   0.210000
      23 C            7.3330     5.5602    -0.2134 lopes_018      1 Compound  -0.120000
      24 H            6.9455     3.4459    -0.5061 lopes_020      1 Compound   0.060000
      25 H            6.7648     3.9865     1.1633 lopes_020      1 Compound   0.060000
      26 C            8.8519     5.3838    -0.0317 lopes_019      1 Compound  -0.180000
      27 H            6.9845     6.3671     0.4360 lopes_020      1 Compound   0.060000
      28 H            7.1262     5.8542    -1.2454 lopes_020      1 Compound   0.060000
      29 H            9.0876     5.0999     0.9967 lopes_020      1 Compound   0.060000
      30 H            9.3704     6.3184    -0.2569 lopes_020      1 Compound   0.060000
      31 H            9.2328     4.6100    -0.7023 lopes_020      1 Compound   0.060000
@<TRIPOS>BOND
       1        1        3 1
       2        2        1 1
       3        4        2 1
       4        5        3 1
       5        5        4 1
       6        6        4 1
       7        6        8 1
       8        6        7 1
       9        9        6 1
      10       10        3 1
      11       10       11 1
      12       12       10 1
      13       13       10 1
      14       14       19 1
      15       14       17 1
      16       14       11 1
      17       14       18 1
      18       15       11 1
      19       16       11 1
      20       17       24 1
      21       17       25 1
      22       17       23 1
      23       20        1 1
      24       21        2 1
      25       22        5 1
      26       23       27 1
      27       23       28 1
      28       23       26 1
      29       26       30 1
      30       26       29 1
      31       26       31 1
@<TRIPOS>SUBSTRUCTURE
       1 Compound        1 RESIDUE    0 1    ROOT      0
