@<TRIPOS>MOLECULE
RES
40 40 1 0 1
SMALL
NO_CHARGES
@<TRIPOS>CRYSIN
   19.0834    13.2074     8.5889    90.0000    90.0000    90.0000  1  1
@<TRIPOS>ATOM
       1 C            1.5706     2.5850    -0.3516 C             1 RES     
       2 C            0.8383     1.2348    -0.3736 C             1 RES     
       3 N            3.0006     2.2402    -0.4543 N             1 RES     
       4 N            1.8946     0.2086    -0.3794 N             1 RES     
       5 C            3.1222     0.8755     0.0797 C             1 RES     
       6 C            1.5423    -0.9752     0.4254 C             1 RES     
       7 H            0.6272    -1.4285     0.0339 H             1 RES     
       8 H            1.3813    -0.6883     1.4681 H             1 RES     
       9 H            2.3495    -1.7107     0.3755 H             1 RES     
      10 C            3.8870     3.2374     0.1848 C             1 RES     
      11 C            5.3751     3.0069    -0.1600 C             1 RES     
      12 H            3.7503     3.2187     1.2703 H             1 RES     
      13 H            3.6004     4.2283    -0.1796 H             1 RES     
      14 H            4.0194     0.3697    -0.3081 H             1 RES     
      15 H            1.3651     3.0736     0.6054 H             1 RES     
      16 H            0.2129     1.1418    -1.2653 H             1 RES     
      17 C            6.2134     4.2217     0.2912 C             1 RES     
      18 H            5.4802     2.8757    -1.2402 H             1 RES     
      19 H            5.7410     2.0985     0.3248 H             1 RES     
      20 C            7.6992     4.1069    -0.1167 C             1 RES     
      21 H            6.1408     4.3356     1.3759 H             1 RES     
      22 H            5.7900     5.1230    -0.1600 H             1 RES     
      23 C            8.4240     5.4473     0.1462 C             1 RES     
      24 H            7.7698     3.8611    -1.1794 H             1 RES     
      25 H            8.1741     3.2988     0.4447 H             1 RES     
      26 C            9.8975     5.4576    -0.3180 C             1 RES     
      27 H            8.3687     5.6997     1.2081 H             1 RES     
      28 H            7.8976     6.2375    -0.3953 H             1 RES     
      29 C           10.8279     4.6466     0.6109 C             1 RES     
      30 H           10.2359     6.4967    -0.3312 H             1 RES     
      31 H            9.9718     5.0846    -1.3428 H             1 RES     
      32 C           12.3102     4.9021     0.2609 C             1 RES     
      33 H           10.6057     3.5803     0.5223 H             1 RES     
      34 H           10.6507     4.9381     1.6492 H             1 RES     
      35 C           13.2563     4.1427     1.2093 C             1 RES     
      36 H           12.5242     5.9715     0.3309 H             1 RES     
      37 H           12.5061     4.5947    -0.7694 H             1 RES     
      38 H           13.0838     4.4414     2.2461 H             1 RES     
      39 H           14.2963     4.3631     0.9589 H             1 RES     
      40 H           13.1029     3.0648     1.1262 H             1 RES     
@<TRIPOS>BOND
       1       33       29 1
       2       19       11 1
       3       24       20 1
       4       20       23 1
       5       14        5 1
       6        6        7 1
       7       11       17 1
       8       25       20 1
       9       10        3 1
      10       12       10 1
      11       11       18 1
      12        4        5 1
      13       32       29 1
      14       23       28 1
      15       35       40 1
      16       20       17 1
      17       13       10 1
      18       35       38 1
      19       26       23 1
      20       35       39 1
      21       32       37 1
      22       34       29 1
      23        6        9 1
      24       21       17 1
      25       16        2 1
      26        1        3 1
      27        5        3 1
      28       22       17 1
      29       26       29 1
      30        4        6 1
      31       26       30 1
      32        6        8 1
      33       26       31 1
      34       32       35 1
      35        4        2 1
      36        1       15 1
      37       11       10 1
      38       27       23 1
      39       32       36 1
      40        1        2 1
@<TRIPOS>SUBSTRUCTURE
       1 RES             1 RESIDUE    0 **** ROOT      0
