@<TRIPOS>MOLECULE
Compound
40 40 1 0 1
SMALL
USER_CHARGES
@<TRIPOS>CRYSIN
   19.0235    12.8978     8.9298    90.0000    90.0000    90.0000  1  1
@<TRIPOS>ATOM
       1 C            1.5891     2.4968     0.8550 lopes_012      1 Compound  -0.130000
       2 C            0.8602     1.1660     0.6152 lopes_012      1 Compound  -0.130000
       3 N            3.0257     2.1564     0.8263 lopes_010      1 Compound   0.150000
       4 N            1.9214     0.1602     0.4490 lopes_010      1 Compound   0.150000
       5 C            3.1280     0.9044     0.0605 lopes_011      1 Compound  -0.110000
       6 C            1.5601    -0.9036    -0.5049 lopes_014      1 Compound  -0.170000
       7 H            0.6548    -1.4139    -0.1641 lopes_015      1 Compound   0.130000
       8 H            2.3720    -1.6328    -0.5708 lopes_015      1 Compound   0.130000
       9 H            1.3789    -0.4774    -1.4957 lopes_015      1 Compound   0.130000
      10 C            3.8695     3.2648     0.3273 lopes_014      1 Compound  -0.170000
      11 C            5.3827     2.9683     0.4356 lopes_018      1 Compound  -0.120000
      12 H            3.6484     4.1551     0.9234 lopes_015      1 Compound   0.130000
      13 H            3.6169     3.4806    -0.7153 lopes_015      1 Compound   0.130000
      14 H            4.0405     0.3476     0.3224 lopes_013      1 Compound   0.210000
      15 H            1.3406     3.1781     0.0354 lopes_013      1 Compound   0.210000
      16 H            0.2152     0.9100     1.4598 lopes_013      1 Compound   0.210000
      17 C            6.1823     4.2617     0.1713 lopes_018      1 Compound  -0.120000
      18 H            5.6628     2.1999    -0.2890 lopes_020      1 Compound   0.060000
      19 H            5.6184     2.5914     1.4342 lopes_020      1 Compound   0.060000
      20 C            7.7080     4.0293     0.0982 lopes_018      1 Compound  -0.120000
      21 H            5.9628     4.9808     0.9646 lopes_020      1 Compound   0.060000
      22 H            5.8469     4.7034    -0.7704 lopes_020      1 Compound   0.060000
      23 C            8.4339     5.3852    -0.0635 lopes_018      1 Compound  -0.120000
      24 H            7.9348     3.3804    -0.7515 lopes_020      1 Compound   0.060000
      25 H            8.0541     3.5275     1.0054 lopes_020      1 Compound   0.060000
      26 C            9.9268     5.2603    -0.4385 lopes_018      1 Compound  -0.120000
      27 H            8.3333     5.9663     0.8571 lopes_020      1 Compound   0.060000
      28 H            7.9416     5.9572    -0.8540 lopes_020      1 Compound   0.060000
      29 C           10.7926     4.6334     0.6774 lopes_018      1 Compound  -0.120000
      30 H           10.3004     6.2650    -0.6510 lopes_020      1 Compound   0.060000
      31 H           10.0325     4.6796    -1.3583 lopes_020      1 Compound   0.060000
      32 C           12.2938     4.8368     0.3752 lopes_018      1 Compound  -0.120000
      33 H           10.5710     3.5663     0.7599 lopes_020      1 Compound   0.060000
      34 H           10.5535     5.0983     1.6374 lopes_020      1 Compound   0.060000
      35 C           13.1861     4.1716     1.4398 lopes_019      1 Compound  -0.180000
      36 H           12.5181     5.9059     0.3413 lopes_020      1 Compound   0.060000
      37 H           12.5347     4.4199    -0.6058 lopes_020      1 Compound   0.060000
      38 H           12.9594     4.5627     2.4341 lopes_020      1 Compound   0.060000
      39 H           14.2387     4.3703     1.2249 lopes_020      1 Compound   0.060000
      40 H           13.0361     3.0896     1.4468 lopes_020      1 Compound   0.060000
@<TRIPOS>BOND
       1        1        2 1
       2        3        1 1
       3        4        2 1
       4        5       14 1
       5        5        3 1
       6        5        4 1
       7        6        7 1
       8        6        4 1
       9        6        9 1
      10        8        6 1
      11       10        3 1
      12       11       10 1
      13       11       17 1
      14       11       19 1
      15       11       18 1
      16       12       10 1
      17       13       10 1
      18       15        1 1
      19       16        2 1
      20       17       20 1
      21       17       21 1
      22       22       17 1
      23       23       20 1
      24       23       26 1
      25       23       28 1
      26       23       27 1
      27       24       20 1
      28       25       20 1
      29       26       30 1
      30       26       31 1
      31       26       29 1
      32       29       32 1
      33       29       34 1
      34       29       33 1
      35       32       35 1
      36       36       32 1
      37       37       32 1
      38       38       35 1
      39       39       35 1
      40       40       35 1
@<TRIPOS>SUBSTRUCTURE
       1 Compound        1 RESIDUE    0 1    ROOT      0
