@<TRIPOS>MOLECULE
Compound
8 7 1 0 1
SMALL
USER_CHARGES
@<TRIPOS>CRYSIN
    8.6215     7.6835     7.9047    90.0000    90.0000    90.0000  1  1
@<TRIPOS>ATOM
       1 C           -2.3174     2.0408     0.5837 lopes_021      1 Compound   0.350000
       2 F           -2.6068     2.9742    -0.3401 lopes_022      1 Compound  -0.160000
       3 F           -3.2403     1.0669     0.4946 lopes_022      1 Compound  -0.160000
       4 F           -2.4274     2.6087     1.7977 lopes_022      1 Compound  -0.160000
       5 S           -0.6803     1.3881     0.3348 lopes_023      1 Compound   1.020000
       6 O            0.3812     2.5651     0.4470 lopes_024      1 Compound  -0.630000
       7 O           -0.3744     0.2907     1.4424 lopes_024      1 Compound  -0.630000
       8 O           -0.5882     0.7265    -1.1070 lopes_024      1 Compound  -0.630000
@<TRIPOS>BOND
       1        2        1 1
       2        3        1 1
       3        4        1 1
       4        5        1 1
       5        6        5 1
       6        7        5 1
       7        8        5 1
@<TRIPOS>SUBSTRUCTURE
       1 Compound        1 RESIDUE    0 1    ROOT      0
