@<TRIPOS>MOLECULE
Compound
7 6 1 0 1
SMALL
USER_CHARGES
@<TRIPOS>CRYSIN
    8.1752     7.5141     7.6160    90.0000    90.0000    90.0000  1  1
@<TRIPOS>ATOM
       1 P           -0.2835     1.3883     0.0400 lopes_027      1 Compound   1.340000
       2 F            1.3041     2.0252     0.1981 lopes_030a      1 Compound  -0.390000
       3 F           -0.6781     2.6456    -1.0623 lopes_030a      1 Compound  -0.390000
       4 F           -0.8083     2.3708     1.3479 lopes_030b      1 Compound  -0.390000
       5 F            0.2408     0.4059    -1.2681 lopes_030b      1 Compound  -0.390000
       6 F           -1.8711     0.7512    -0.1184 lopes_030c      1 Compound  -0.390000
       7 F            0.1110     0.1315     1.1425 lopes_030c      1 Compound  -0.390000
@<TRIPOS>BOND
       1        1        7 1
       2        1        6 1
       3        2        1 1
       4        3        1 1
       5        4        1 1
       6        5        1 1
@<TRIPOS>SUBSTRUCTURE
       1 Compound        1 RESIDUE    0 1    ROOT      0
