@<TRIPOS>MOLECULE
Compound
15 14 1 0 1
SMALL
USER_CHARGES
@<TRIPOS>CRYSIN
   11.6001     8.9591     9.8308    90.0000    90.0000    90.0000  1  1
@<TRIPOS>ATOM
       1 C            0.5109     0.5356    -0.7458 lopes_021      1 Compound   0.350000
       2 F            0.3286    -0.7930    -0.6285 lopes_022      1 Compound  -0.160000
       3 F            1.2621     0.7458    -1.8422 lopes_022      1 Compound  -0.160000
       4 F            1.2183     0.9436     0.3220 lopes_022      1 Compound  -0.160000
       5 S           -1.0406     1.4234    -0.8355 lopes_023      1 Compound   1.020000
       6 O           -1.7252     0.8092    -2.1315 lopes_025      1 Compound  -0.530000
       7 O           -0.5667     2.8258    -1.4149 lopes_025      1 Compound  -0.530000
       8 N           -2.1527     0.3424    -0.3267 lopes_026      1 Compound  -0.660000
       9 S           -2.7918     0.2635     1.1735 lopes_023      1 Compound   1.020000
      10 O           -2.8126    -0.1818     2.6993 lopes_025      1 Compound  -0.530000
      11 O           -3.0908    -1.1333     0.4769 lopes_025      1 Compound  -0.530000
      12 C           -4.3576     1.1186     1.0310 lopes_021      1 Compound   0.350000
      13 F           -5.3380     0.4612     1.6771 lopes_022      1 Compound  -0.160000
      14 F           -4.7422     1.2612    -0.2510 lopes_022      1 Compound  -0.160000
      15 F           -4.2651     2.3485     1.5658 lopes_022      1 Compound  -0.160000
@<TRIPOS>BOND
       1        2        1 1
       2        3        1 1
       3        4        1 1
       4        5        1 1
       5        6        5 1
       6        7        5 1
       7        8        5 1
       8        9       11 1
       9        9        8 1
      10        9       12 1
      11       10        9 1
      12       12       13 1
      13       12       14 1
      14       12       15 1
@<TRIPOS>SUBSTRUCTURE
       1 Compound        1 RESIDUE    0 1    ROOT      0
