@<TRIPOS>MOLECULE
*****
 5 4 0 0 0
SMALL
GASTEIGER

@<TRIPOS>ATOM
      1 B          -0.0813    1.4248   -0.1528 B       1  LIG1        0.0000
      2 F           1.2006    1.8554    0.3811 F       1  LIG1        0.0000
      3 F          -0.7433    2.5508   -0.7913 F       1  LIG1        0.0000
      4 F          -0.9131    0.9235    0.9291 F       1  LIG1        0.0000
      5 F           0.1306    0.3695   -1.1301 F       1  LIG1        0.0000
@<TRIPOS>BOND
     1     1     2    1
     2     1     3    1
     3     1     4    1
     4     1     5    1
