@<TRIPOS>MOLECULE
*****
 24 24 0 0 0
SMALL
GASTEIGER

@<TRIPOS>ATOM
      1 C          -2.6367    2.9592   -0.8564 C.2     1  UNL1       -0.7237
      2 C          -2.2553    3.0876    0.4392 C.2     1  UNL1       -0.6895
      3 C          -3.0778    1.7436   -1.2665 C.2     1  UNL1       -0.6895
      4 C          -2.3669    1.9300    1.2226 C.2     1  UNL1       -0.4960
      5 N          -2.6689    0.9121    0.7721 N.3     1  UNL1       -0.6659
      6 C          -3.0944    0.7412   -0.2862 C.2     1  UNL1       -0.4960
      7 C          -1.8181   -0.2137    1.2488 C.3     1  UNL1       -0.0579
      8 C          -0.4238   -0.2155    0.5780 C.3     1  UNL1       -0.0449
      9 H          -2.3235   -1.1575    1.0324 H       1  UNL1        0.0379
     10 H          -1.6972   -0.1340    2.3315 H       1  UNL1        0.0379
     11 H          -0.5529   -0.2802   -0.5051 H       1  UNL1        0.0276
     12 C           0.4401   -1.3884    1.0856 C.3     1  UNL1       -0.0549
     13 H           0.0696    0.7370    0.7860 H       1  UNL1        0.0276
     14 H          -0.0722   -2.3287    0.8718 H       1  UNL1        0.0263
     15 H           0.5530   -1.3071    2.1686 H       1  UNL1        0.0263
     16 C           1.8277   -1.3911    0.4186 C.3     1  UNL1       -0.0652
     17 H          -2.5865    3.8141   -1.5541 H       1  UNL1       -0.2718
     18 H          -3.4042    1.5524   -2.3049 H       1  UNL1       -0.2697
     19 H          -3.5727   -0.2216   -0.5727 H       1  UNL1       -0.2290
     20 H          -1.8811    4.0412    0.8539 H       1  UNL1       -0.2697
     21 H          -2.1814    2.0518    2.3129 H       1  UNL1       -0.2290
     22 H           1.7261   -1.4846   -0.6650 H       1  UNL1        0.0230
     23 H           2.4257   -2.2257    0.7879 H       1  UNL1        0.0230
     24 H           2.3538   -0.4589    0.6369 H       1  UNL1        0.0230
@<TRIPOS>BOND
     1     1     2    1
     2     1     3    1
     3     2     4    1
     4     4     5    1
     5     3     6    1
     6     6     5    1
     7     5     7    1
     8     7     8    1
     9     7     9    1
    10     7    10    1
    11     8    11    1
    12     8    12    1
    13     8    13    1
    14    12    14    1
    15    12    15    1
    16    12    16    1
    17     1    17    1
    18     3    18    1
    19     6    19    1
    20     2    20    1
    21     4    21    1
    22    16    22    1
    23    16    23    1
    24    16    24    1
