@<TRIPOS>MOLECULE
*****
 5 4 0 0 0
SMALL
GASTEIGER

@<TRIPOS>ATOM
      1 N          -4.0546    2.9934   -0.0122 N.1     1  UNL1       -0.1715
      2 C          -3.0792    2.4346    0.1660 C.1     1  UNL1        0.2033
      3 N          -1.8780    1.8829   -0.1096 N.pl3   1  UNL1       -0.0634
      4 C          -1.0882    1.2940    0.5296 C.1     1  UNL1        0.2033
      5 N          -0.1128    0.7353    0.7078 N.1     1  UNL1       -0.1715
@<TRIPOS>BOND
     1     1     2    3
     2     2     3    1
     3     3     4    1
     4     4     5    3
