@<TRIPOS>MOLECULE
*****
 16 16 0 0 0
SMALL
GASTEIGER

@<TRIPOS>ATOM
      1 C          -0.7573    0.8990    0.1098 C.3     1  UNL1        0.0138
      2 C           0.5720    1.4974   -0.3081 C.3     1  UNL1        0.0138
      3 N          -0.9522    1.4641    1.4546 N.3     1  UNL1       -0.4405
      4 N           0.7311    2.6125    0.6391 N.3     1  UNL1       -0.4405
      5 C          -0.1129    2.1386    1.1834 C.2     1  UNL1       -0.2047
      6 C          -2.2929    1.1703    1.9859 C.3     1  UNL1       -0.0402
      7 H          -0.0973    2.7485    2.0987 H       1  UNL1       -0.1753
      8 C           2.0655    3.2264    0.5472 C.3     1  UNL1       -0.0402
      9 H           2.8289    2.4999    0.8370 H       1  UNL1        0.0367
     10 H           2.1143    4.0837    1.2230 H       1  UNL1        0.0367
     11 H           2.2518    3.5644   -0.4753 H       1  UNL1        0.0367
     12 H          -2.4623    0.0907    1.9965 H       1  UNL1        0.0367
     13 H          -3.0520    1.6534    1.3654 H       1  UNL1        0.0367
     14 H          -2.3679    1.5552    3.0058 H       1  UNL1        0.0367
     15 H          -1.5445    1.2450   -0.5698 H       1  UNL1        0.0469
     16 H           1.3675    0.7569   -0.1664 H       1  UNL1        0.0469
@<TRIPOS>BOND
     1     1     2    1
     2     1     3    1
     3     2     4    1
     4     3     5    1
     5     3     6    1
     6     5     4    1
     7     5     7    1
     8     4     8    1
     9     8     9    1
    10     8    10    1
    11     8    11    1
    12     6    12    1
    13     6    13    1
    14     6    14    1
    15     1    15    1
    16     2    16    1
