@<TRIPOS>MOLECULE
RES
31 31 1 0 1
SMALL
NO_CHARGES
@<TRIPOS>CRYSIN
   15.0212    13.1633     7.8669    90.0000    90.0000    90.0000  1  1
@<TRIPOS>ATOM
       1 C            0.5450     2.3325     0.4711 C             1 RES     
       2 C           -0.0098     0.9006     0.3959 C             1 RES     
       3 N            2.0052     2.1639     0.5907 N             1 RES     
       4 N            1.1683     0.0171     0.3980 N             1 RES     
       5 C            2.3062     0.8535    -0.0057 C             1 RES     
       6 C            0.9981    -1.1745    -0.4522 C             1 RES     
       7 H            0.1438    -1.7603    -0.1020 H             1 RES     
       8 H            1.8962    -1.7962    -0.4018 H             1 RES     
       9 H            0.8267    -0.8764    -1.4905 H             1 RES     
      10 C            2.7799     3.2942     0.0308 C             1 RES     
      11 C            4.2910     3.1481     0.3112 C             1 RES     
      12 H            2.4266     4.2202     0.4942 H             1 RES     
      13 H            2.6120     3.3617    -1.0480 H             1 RES     
      14 C            5.0550     4.4237    -0.0988 C             1 RES     
      15 H            4.6889     2.2928    -0.2405 H             1 RES     
      16 H            4.4479     2.9593     1.3764 H             1 RES     
      17 C            6.5736     4.2594     0.1222 C             1 RES     
      18 H            4.6885     5.2692     0.4891 H             1 RES     
      19 H            4.8622     4.6448    -1.1517 H             1 RES     
      20 H            0.2972     2.8480    -0.4613 H             1 RES     
      21 H           -0.6508     0.6816     1.2540 H             1 RES     
      22 H            3.2542     0.4453     0.3766 H             1 RES     
      23 C            7.3330     5.5602    -0.2134 C             1 RES     
      24 H            6.9455     3.4459    -0.5061 H             1 RES     
      25 H            6.7648     3.9865     1.1633 H             1 RES     
      26 C            8.8519     5.3838    -0.0317 C             1 RES     
      27 H            6.9845     6.3671     0.4360 H             1 RES     
      28 H            7.1262     5.8542    -1.2454 H             1 RES     
      29 H            9.0876     5.0999     0.9967 H             1 RES     
      30 H            9.3704     6.3184    -0.2569 H             1 RES     
      31 H            9.2328     4.6100    -0.7023 H             1 RES     
@<TRIPOS>BOND
       1       10        3 1
       2        5        3 1
       3        3        1 1
       4        6        4 1
       5        5       22 1
       6       17       14 1
       7       26       23 1
       8       14       11 1
       9       19       14 1
      10       29       26 1
      11       21        2 1
      12        7        6 1
      13        8        6 1
      14        2        1 1
      15       18       14 1
      16       25       17 1
      17       16       11 1
      18       24       17 1
      19       26       31 1
      20       27       23 1
      21       12       10 1
      22       20        1 1
      23       28       23 1
      24       15       11 1
      25       13       10 1
      26        6        9 1
      27        2        4 1
      28       23       17 1
      29        5        4 1
      30       30       26 1
      31       10       11 1
@<TRIPOS>SUBSTRUCTURE
       1 RES             1 RESIDUE    0 **** ROOT      0
