@<TRIPOS>MOLECULE
*****
 16 16 0 0 0
SMALL
GASTEIGER

@<TRIPOS>ATOM
      1 C           6.5981   -0.6418   -3.8889 C.ar    1  UNL1        0.0217
      2 C           5.4012   -0.5669   -3.2079 C.ar    1  UNL1        0.0217
      3 N           6.6177   -1.7982   -4.5790 N.ar    1  UNL1       -0.3413
      4 H           7.3925    0.0926   -3.8802 H       1  UNL1        0.0824
      5 N           4.6908   -1.6777   -3.4825 N.ar    1  UNL1       -0.3413
      6 H           5.0755    0.2375   -2.5619 H       1  UNL1        0.0824
      7 C           5.4474   -2.4169   -4.3196 C.ar    1  UNL1        0.0746
      8 H           5.1550   -3.3769   -4.7281 H       1  UNL1        0.1010
      9 C           3.3654   -2.0080   -2.9712 C.3     1  UNL1        0.0127
     10 H           2.9974   -1.2009   -2.3010 H       1  UNL1        0.0456
     11 H           3.4086   -2.9553   -2.3943 H       1  UNL1        0.0456
     12 H           2.6526   -2.1207   -3.8146 H       1  UNL1        0.0456
     13 C           7.6961   -2.2788   -5.4353 C.3     1  UNL1        0.0127
     14 H           8.5329   -1.5469   -5.4506 H       1  UNL1        0.0456
     15 H           7.3236   -2.4127   -6.4723 H       1  UNL1        0.0456
     16 H           8.0796   -3.2473   -5.0520 H       1  UNL1        0.0456
@<TRIPOS>BOND
     1     1     2   ar
     2     1     3   ar
     3     1     4    1
     4     2     5   ar
     5     2     6    1
     6     5     7   ar
     7     3     7   ar
     8     7     8    1
     9     5     9    1
    10     9    10    1
    11     9    11    1
    12     9    12    1
    13     3    13    1
    14    13    14    1
    15    13    15    1
    16    13    16    1
