@<TRIPOS>MOLECULE
RES
40 40 1 0 1
SMALL
NO_CHARGES
@<TRIPOS>CRYSIN
   19.0235    12.8978     8.9298    90.0000    90.0000    90.0000  1  1
@<TRIPOS>ATOM
       1 C            1.5891     2.4968     0.8550 C             1 RES     
       2 C            0.8602     1.1660     0.6152 C             1 RES     
       3 N            3.0257     2.1564     0.8263 N             1 RES     
       4 N            1.9214     0.1602     0.4490 N             1 RES     
       5 C            3.1280     0.9044     0.0605 C             1 RES     
       6 C            1.5601    -0.9036    -0.5049 C             1 RES     
       7 H            0.6548    -1.4139    -0.1641 H             1 RES     
       8 H            2.3720    -1.6328    -0.5708 H             1 RES     
       9 H            1.3789    -0.4774    -1.4957 H             1 RES     
      10 C            3.8695     3.2648     0.3273 C             1 RES     
      11 C            5.3827     2.9683     0.4356 C             1 RES     
      12 H            3.6484     4.1551     0.9234 H             1 RES     
      13 H            3.6169     3.4806    -0.7153 H             1 RES     
      14 H            4.0405     0.3476     0.3224 H             1 RES     
      15 H            1.3406     3.1781     0.0354 H             1 RES     
      16 H            0.2152     0.9100     1.4598 H             1 RES     
      17 C            6.1823     4.2617     0.1713 C             1 RES     
      18 H            5.6628     2.1999    -0.2890 H             1 RES     
      19 H            5.6184     2.5914     1.4342 H             1 RES     
      20 C            7.7080     4.0293     0.0982 C             1 RES     
      21 H            5.9628     4.9808     0.9646 H             1 RES     
      22 H            5.8469     4.7034    -0.7704 H             1 RES     
      23 C            8.4339     5.3852    -0.0635 C             1 RES     
      24 H            7.9348     3.3804    -0.7515 H             1 RES     
      25 H            8.0541     3.5275     1.0054 H             1 RES     
      26 C            9.9268     5.2603    -0.4385 C             1 RES     
      27 H            8.3333     5.9663     0.8571 H             1 RES     
      28 H            7.9416     5.9572    -0.8540 H             1 RES     
      29 C           10.7926     4.6334     0.6774 C             1 RES     
      30 H           10.3004     6.2650    -0.6510 H             1 RES     
      31 H           10.0325     4.6796    -1.3583 H             1 RES     
      32 C           12.2938     4.8368     0.3752 C             1 RES     
      33 H           10.5710     3.5663     0.7599 H             1 RES     
      34 H           10.5535     5.0983     1.6374 H             1 RES     
      35 C           13.1861     4.1716     1.4398 C             1 RES     
      36 H           12.5181     5.9059     0.3413 H             1 RES     
      37 H           12.5347     4.4199    -0.6058 H             1 RES     
      38 H           12.9594     4.5627     2.4341 H             1 RES     
      39 H           14.2387     4.3703     1.2249 H             1 RES     
      40 H           13.0361     3.0896     1.4468 H             1 RES     
@<TRIPOS>BOND
       1        3       10 1
       2        4        2 1
       3       18       11 1
       4        3        5 1
       5       26       31 1
       6       35       40 1
       7        7        6 1
       8       34       29 1
       9       19       11 1
      10       17       22 1
      11        2       16 1
      12       23       28 1
      13       35       38 1
      14       11       10 1
      15       33       29 1
      16       23       27 1
      17        4        5 1
      18       35       39 1
      19       26       29 1
      20       36       32 1
      21       29       32 1
      22       17       11 1
      23       17       20 1
      24       37       32 1
      25       13       10 1
      26       35       32 1
      27       24       20 1
      28        9        6 1
      29       26       30 1
      30        1        2 1
      31       20       25 1
      32        4        6 1
      33       17       21 1
      34       20       23 1
      35       23       26 1
      36       12       10 1
      37       14        5 1
      38        8        6 1
      39        1        3 1
      40        1       15 1
@<TRIPOS>SUBSTRUCTURE
       1 RES             1 RESIDUE    0 **** ROOT      0
