@<TRIPOS>MOLECULE
*****
 7 6 0 0 0
SMALL
GASTEIGER

@<TRIPOS>ATOM
      1 P          -0.2835    1.3883    0.0400 P       1  LIG1        0.6235
      2 F           1.3041    2.0252    0.1981 F       1  LIG1       -0.1039
      3 F          -0.6781    2.6456   -1.0623 F       1  LIG1       -0.1039
      4 F          -0.8083    2.3708    1.3479 F       1  LIG1       -0.1039
      5 F           0.2408    0.4059   -1.2681 F       1  LIG1       -0.1039
      6 F          -1.8711    0.7512   -0.1184 F       1  LIG1       -0.1039
      7 F           0.1110    0.1315    1.1425 F       1  LIG1       -0.1039
@<TRIPOS>BOND
     1     1     2    1
     2     1     3    1
     3     1     4    1
     4     1     5    1
     5     6     1    1
     6     1     7    1
