@<TRIPOS>MOLECULE
*****
 27 27 0 0 0
SMALL
GASTEIGER

@<TRIPOS>ATOM
      1 C          -3.5448    2.4355   -0.5490 C.3     1  UNL1       -0.0883
      2 C          -2.7668    1.2563    0.0189 C.3     1  UNL1       -0.0693
      3 C          -1.3718    1.8229    0.0324 C.3     1  UNL1       -0.0693
      4 H          -2.8905    0.3117   -0.5525 H       1  UNL1        0.0247
      5 H          -3.0886    1.0787    1.0714 H       1  UNL1        0.0247
      6 C          -1.6645    3.1778    0.6542 C.3     1  UNL1       -0.0883
      7 H          -1.0115    1.9540   -1.0128 H       1  UNL1        0.0247
      8 H          -0.6351    1.2146    0.5991 H       1  UNL1        0.0247
      9 N          -2.9072    3.6783   -0.0077 N.4     1  UNL1        0.3782
     10 H          -4.6214    2.3121   -0.3239 H       1  UNL1        0.0064
     11 H          -3.4250    2.3866   -1.6575 H       1  UNL1        0.0064
     12 H          -0.8013    3.8799    0.6081 H       1  UNL1        0.0064
     13 H          -1.8496    2.9822    1.7392 H       1  UNL1        0.0064
     14 C          -2.5167    4.5949   -1.1100 C.3     1  UNL1       -0.1004
     15 H          -3.3934    4.8842   -1.7269 H       1  UNL1        0.0028
     16 H          -1.7880    4.1127   -1.7993 H       1  UNL1        0.0028
     17 H          -2.0421    5.5182   -0.7091 H       1  UNL1        0.0028
     18 C          -3.7553    4.3787    1.0104 C.3     1  UNL1       -0.0885
     19 C          -4.9266    5.2560    0.4892 C.3     1  UNL1       -0.0704
     20 H          -3.1103    5.0824    1.5866 H       1  UNL1        0.0064
     21 H          -4.1556    3.6412    1.7431 H       1  UNL1        0.0064
     22 C          -6.0319    4.5132   -0.2558 C.3     1  UNL1       -0.0669
     23 H          -4.5457    6.0807   -0.1489 H       1  UNL1        0.0245
     24 H          -5.3955    5.7319    1.3781 H       1  UNL1        0.0245
     25 H          -5.6589    4.0912   -1.2102 H       1  UNL1        0.0229
     26 H          -6.8460    5.2255   -0.5064 H       1  UNL1        0.0229
     27 H          -6.4550    3.7094    0.3833 H       1  UNL1        0.0229
@<TRIPOS>BOND
     1     1     2    1
     2     2     3    1
     3     2     4    1
     4     2     5    1
     5     3     6    1
     6     3     7    1
     7     3     8    1
     8     1     9    1
     9     1    10    1
    10     1    11    1
    11     6     9    1
    12     6    12    1
    13     6    13    1
    14     9    14    1
    15    14    15    1
    16    14    16    1
    17    14    17    1
    18     9    18    1
    19    18    19    1
    20    18    20    1
    21    18    21    1
    22    19    22    1
    23    19    23    1
    24    19    24    1
    25    22    25    1
    26    22    26    1
    27    22    27    1
