@<TRIPOS>MOLECULE
*****
 30 30 0 0 0
SMALL
GASTEIGER

@<TRIPOS>ATOM
      1 C          -2.2660    2.4703   -0.7746 C.3     1  UNL1       -0.0693
      2 C          -1.1569    1.4382   -0.5389 C.3     1  UNL1       -0.0883
      3 C          -3.4808    1.8181   -0.1084 C.3     1  UNL1       -0.0693
      4 H          -2.4314    2.6649   -1.8368 H       1  UNL1        0.0247
      5 H          -2.0170    3.4081   -0.2713 H       1  UNL1        0.0247
      6 H          -3.9427    1.1077   -0.7988 H       1  UNL1        0.0247
      7 H          -4.2289    2.5524    0.1992 H       1  UNL1        0.0247
      8 C          -2.8819    1.0604    1.0881 C.3     1  UNL1       -0.0883
      9 H          -1.3203    0.6253   -1.2527 H       1  UNL1        0.0064
     10 N          -1.4133    0.7812    0.8042 N.4     1  UNL1        0.3782
     11 H          -0.1815    1.8791   -0.7625 H       1  UNL1        0.0064
     12 H          -3.5201    0.2040    1.3238 H       1  UNL1        0.0064
     13 H          -2.9129    1.7291    1.9534 H       1  UNL1        0.0064
     14 C          -0.5423    1.4376    1.8551 C.3     1  UNL1       -0.1004
     15 H          -0.7761    2.5045    1.9136 H       1  UNL1        0.0028
     16 H           0.5280    1.3381    1.6573 H       1  UNL1        0.0028
     17 H          -0.7626    0.9787    2.8230 H       1  UNL1        0.0028
     18 C          -1.1681   -0.7199    0.7669 C.3     1  UNL1       -0.0882
     19 C           0.2539   -1.2077    0.4044 C.3     1  UNL1       -0.0678
     20 H          -1.8826   -1.1191    0.0406 H       1  UNL1        0.0064
     21 H          -1.4369   -1.0902    1.7607 H       1  UNL1        0.0064
     22 C           0.3052   -2.7482    0.3521 C.3     1  UNL1       -0.0576
     23 H           0.9708   -0.8492    1.1463 H       1  UNL1        0.0247
     24 H           0.5497   -0.8025   -0.5662 H       1  UNL1        0.0247
     25 C           1.7161   -3.2496   -0.0063 C.3     1  UNL1       -0.0653
     26 H          -0.4069   -3.1156   -0.3911 H       1  UNL1        0.0262
     27 H           0.0122   -3.1596    1.3213 H       1  UNL1        0.0262
     28 H           2.0223   -2.8730   -0.9851 H       1  UNL1        0.0230
     29 H           1.7320   -4.3413   -0.0386 H       1  UNL1        0.0230
     30 H           2.4441   -2.9179    0.7377 H       1  UNL1        0.0230
@<TRIPOS>BOND
     1     1     2    1
     2     1     3    1
     3     1     4    1
     4     1     5    1
     5     3     6    1
     6     3     7    1
     7     3     8    1
     8     2     9    1
     9     2    10    1
    10     2    11    1
    11    10     8    1
    12     8    12    1
    13     8    13    1
    14    10    14    1
    15    14    15    1
    16    14    16    1
    17    14    17    1
    18    10    18    1
    19    18    19    1
    20    18    20    1
    21    18    21    1
    22    19    22    1
    23    19    23    1
    24    19    24    1
    25    22    25    1
    26    22    26    1
    27    22    27    1
    28    25    28    1
    29    25    29    1
    30    25    30    1
