@<TRIPOS>MOLECULE
*****
 56 55 0 0 0
SMALL
GASTEIGER

@<TRIPOS>ATOM
      1 N           2.1566    0.6181   -0.6969 N.4     1  LIG1        0.3801
      2 C           2.1722    1.7656    0.3157 C.3     1  LIG1       -0.0879
      3 C           1.2530    0.9065   -1.9105 C.3     1  LIG1       -0.0879
      4 C           1.5796   -0.6618   -0.0841 C.3     1  LIG1       -0.0879
      5 C           3.5857    0.3780   -1.2135 C.3     1  LIG1       -0.0879
      6 C           0.8779    2.2511    1.0101 C.3     1  LIG1       -0.0678
      7 H           2.6435    2.6013   -0.2088 H       1  LIG1        0.0064
      8 H           2.8484    1.4290    1.1040 H       1  LIG1        0.0064
      9 C           1.1111    2.3417   -2.4696 C.3     1  LIG1       -0.0678
     10 H           0.2371    0.5426   -1.7348 H       1  LIG1        0.0064
     11 H           1.6887    0.2663   -2.6841 H       1  LIG1        0.0064
     12 C           2.1621   -1.2876    1.2050 C.3     1  LIG1       -0.0676
     13 H           1.6240   -1.3910   -0.8969 H       1  LIG1        0.0064
     14 H           0.5305   -0.4200    0.1055 H       1  LIG1        0.0064
     15 C           4.7978    0.5017   -0.2499 C.3     1  LIG1       -0.0678
     16 H           3.7146    1.1346   -1.9925 H       1  LIG1        0.0064
     17 H           3.5988   -0.6071   -1.6885 H       1  LIG1        0.0064
     18 C           6.1197    0.1539   -0.9630 C.3     1  LIG1       -0.0576
     19 H           4.6771   -0.1517    0.6132 H       1  LIG1        0.0247
     20 H           4.8674    1.5260    0.1227 H       1  LIG1        0.0247
     21 C           7.3238    0.3441   -0.0201 C.3     1  LIG1       -0.0653
     22 H           6.2454    0.7951   -1.8387 H       1  LIG1        0.0262
     23 H           6.0923   -0.8816   -1.3107 H       1  LIG1        0.0262
     24 H           7.3760    1.3758    0.3360 H       1  LIG1        0.0230
     25 H           8.2550    0.1159   -0.5432 H       1  LIG1        0.0230
     26 H           7.2453   -0.3175    0.8457 H       1  LIG1        0.0230
     27 C           1.2552   -2.4378    1.7030 C.3     1  LIG1       -0.0550
     28 H           2.2213   -0.5310    1.9895 H       1  LIG1        0.0247
     29 H           3.1669   -1.6728    1.0296 H       1  LIG1        0.0247
     30 H           1.5270   -2.6878    2.7315 H       1  LIG1        0.0265
     31 C           1.3800   -3.7088    0.8310 C.3     1  LIG1       -0.0560
     32 H           0.2165   -2.0975    1.7223 H       1  LIG1        0.0265
     33 C           0.3012   -4.7468    1.1910 C.3     1  LIG1       -0.0653
     34 H           2.3702   -4.1493    0.9714 H       1  LIG1        0.0263
     35 H           1.2797   -3.4631   -0.2277 H       1  LIG1        0.0263
     36 H           0.3471   -5.0055    2.2510 H       1  LIG1        0.0230
     37 H           0.4454   -5.6582    0.6064 H       1  LIG1        0.0230
     38 H          -0.6946   -4.3548    0.9701 H       1  LIG1        0.0230
     39 C           0.5670    2.3080   -3.9169 C.3     1  LIG1       -0.0576
     40 H           2.0635    2.8742   -2.4481 H       1  LIG1        0.0247
     41 H           0.4086    2.8924   -1.8437 H       1  LIG1        0.0247
     42 C          -0.2613    3.5638   -4.2476 C.3     1  LIG1       -0.0653
     43 H          -0.0685    1.4310   -4.0638 H       1  LIG1        0.0262
     44 H           1.4041    2.2227   -4.6139 H       1  LIG1        0.0262
     45 H          -1.1727    3.5871   -3.6445 H       1  LIG1        0.0230
     46 H           0.3097    4.4736   -4.0514 H       1  LIG1        0.0230
     47 H          -0.5532    3.5571   -5.3004 H       1  LIG1        0.0230
     48 C           1.2054    3.2086    2.1806 C.3     1  LIG1       -0.0576
     49 H           0.3260    1.3986    1.4100 H       1  LIG1        0.0247
     50 H           0.2213    2.7583    0.3041 H       1  LIG1        0.0247
     51 C           1.9963    4.4617    1.7451 C.3     1  LIG1       -0.0653
     52 H           1.7786    2.6721    2.9412 H       1  LIG1        0.0262
     53 H           0.2715    3.5271    2.6490 H       1  LIG1        0.0262
     54 H           2.9944    4.1959    1.3891 H       1  LIG1        0.0230
     55 H           2.1188    5.1407    2.5918 H       1  LIG1        0.0230
     56 H           1.4726    4.9962    0.9496 H       1  LIG1        0.0230
@<TRIPOS>BOND
     1     1     2    1
     2     1     3    1
     3     1     4    1
     4     1     5    1
     5     2     6    1
     6     2     7    1
     7     2     8    1
     8     3     9    1
     9     3    10    1
    10     3    11    1
    11     4    12    1
    12     4    13    1
    13     4    14    1
    14     5    15    1
    15     5    16    1
    16     5    17    1
    17    15    18    1
    18    15    19    1
    19    15    20    1
    20    18    21    1
    21    18    22    1
    22    18    23    1
    23    21    24    1
    24    21    25    1
    25    21    26    1
    26    12    27    1
    27    12    28    1
    28    12    29    1
    29    27    30    1
    30    27    31    1
    31    27    32    1
    32    31    33    1
    33    31    34    1
    34    31    35    1
    35    33    36    1
    36    33    37    1
    37    33    38    1
    38     9    39    1
    39     9    40    1
    40     9    41    1
    41    39    42    1
    42    39    43    1
    43    39    44    1
    44    42    45    1
    45    42    46    1
    46    42    47    1
    47     6    48    1
    48     6    49    1
    49     6    50    1
    50    48    51    1
    51    48    52    1
    52    48    53    1
    53    51    54    1
    54    51    55    1
    55    51    56    1
