@<TRIPOS>MOLECULE
*****
 29 28 0 0 0
SMALL
GASTEIGER

@<TRIPOS>ATOM
      1 N           2.8781    0.8554    0.3528 N.4     1  LIG1        0.3794
      2 C           3.0675    2.0872    1.2451 C.3     1  LIG1       -0.0908
      3 C           1.4342    0.8760   -0.1609 C.3     1  LIG1       -0.0908
      4 C           3.1334   -0.3709    1.2401 C.3     1  LIG1       -0.0908
      5 C           3.8483    0.9038   -0.8290 C.3     1  LIG1       -0.0908
      6 C           2.8751    3.4950    0.6356 C.3     1  LIG1       -0.0798
      7 H           4.0661    2.0457    1.6883 H       1  LIG1        0.0061
      8 H           2.3416    1.9578    2.0535 H       1  LIG1        0.0061
      9 H           3.5693    3.6684   -0.1888 H       1  LIG1        0.0212
     10 H           3.0641    4.2541    1.3975 H       1  LIG1        0.0212
     11 H           1.8556    3.6367    0.2724 H       1  LIG1        0.0212
     12 C           0.8792   -0.3127   -0.9716 C.3     1  LIG1       -0.0798
     13 H           1.3811    1.7605   -0.8003 H       1  LIG1        0.0061
     14 H           0.7793    1.0359    0.7005 H       1  LIG1        0.0061
     15 H           1.5537   -0.5963   -1.7815 H       1  LIG1        0.0212
     16 H          -0.0806   -0.0377   -1.4138 H       1  LIG1        0.0212
     17 H           0.7045   -1.1752   -0.3265 H       1  LIG1        0.0212
     18 C           3.4671   -1.7454    0.6104 C.3     1  LIG1       -0.0798
     19 H           2.2492   -0.4696    1.8765 H       1  LIG1        0.0061
     20 H           3.9795   -0.1060    1.8805 H       1  LIG1        0.0061
     21 H           2.6899   -2.0950   -0.0662 H       1  LIG1        0.0212
     22 H           3.5774   -2.4907    1.4008 H       1  LIG1        0.0212
     23 H           4.4084   -1.7104    0.0595 H       1  LIG1        0.0212
     24 C           5.3560    1.0619   -0.5274 C.3     1  LIG1       -0.0798
     25 H           3.5360    1.7428   -1.4565 H       1  LIG1        0.0061
     26 H           3.7089   -0.0078   -1.4143 H       1  LIG1        0.0061
     27 H           5.5660    2.0274   -0.0633 H       1  LIG1        0.0212
     28 H           5.9268    1.0075   -1.4568 H       1  LIG1        0.0212
     29 H           5.7141    0.2735    0.1367 H       1  LIG1        0.0212
@<TRIPOS>BOND
     1     1     2    1
     2     1     3    1
     3     1     4    1
     4     1     5    1
     5     2     6    1
     6     2     7    1
     7     2     8    1
     8     6     9    1
     9     6    10    1
    10     6    11    1
    11     3    12    1
    12     3    13    1
    13     3    14    1
    14    12    15    1
    15    12    16    1
    16    12    17    1
    17     4    18    1
    18     4    19    1
    19     4    20    1
    20    18    21    1
    21    18    22    1
    22    18    23    1
    23     5    24    1
    24     5    25    1
    25     5    26    1
    26    24    27    1
    27    24    28    1
    28    24    29    1
