@<TRIPOS>MOLECULE
*****
 17 16 0 0 0
SMALL
GASTEIGER

@<TRIPOS>ATOM
      1 N           3.0275    0.8287    0.1500 N.4     1  LIG1        0.3725
      2 C           3.2023    1.8724    1.1841 C.3     1  LIG1       -0.1015
      3 H           2.3523    1.8693    1.9030 H       1  LIG1        0.0028
      4 H           3.2571    2.8850    0.7249 H       1  LIG1        0.0028
      5 H           4.1391    1.7089    1.7627 H       1  LIG1        0.0028
      6 C           1.7747    1.0790   -0.5965 C.3     1  LIG1       -0.1015
      7 H           1.7982    2.0742   -1.0947 H       1  LIG1        0.0028
      8 H           0.8934    1.0585    0.0833 H       1  LIG1        0.0028
      9 H           1.6170    0.3072   -1.3830 H       1  LIG1        0.0028
     10 C           2.9590   -0.5001    0.7970 C.3     1  LIG1       -0.1015
     11 H           3.8905   -0.7156    1.3672 H       1  LIG1        0.0028
     12 H           2.8273   -1.3066    0.0410 H       1  LIG1        0.0028
     13 H           2.1036   -0.5553    1.5073 H       1  LIG1        0.0028
     14 C           4.1739    0.8637   -0.7847 C.3     1  LIG1       -0.1015
     15 H           4.2501    1.8542   -1.2871 H       1  LIG1        0.0028
     16 H           4.0688    0.0872   -1.5754 H       1  LIG1        0.0028
     17 H           5.1320    0.6781   -0.2493 H       1  LIG1        0.0028
@<TRIPOS>BOND
     1     1     2    1
     2     2     3    1
     3     2     4    1
     4     2     5    1
     5     1     6    1
     6     6     7    1
     7     6     8    1
     8     6     9    1
     9     1    10    1
    10    10    11    1
    11    10    12    1
    12    10    13    1
    13     1    14    1
    14    14    15    1
    15    14    16    1
    16    14    17    1
