@<TRIPOS>MOLECULE
*****
 13 13 0 0 0
SMALL
GASTEIGER

@<TRIPOS>ATOM
      1 C          -0.7462    3.9433   -0.0000 C.ar    1  UNL1        0.0765
      2 N           0.3223    3.1266    0.0000 N.ar    1  UNL1       -0.3248
      3 N          -1.8930    3.2375   -0.0000 N.ar    1  UNL1       -0.3268
      4 H          -0.6910    5.0253   -0.0000 H       1  UNL1        0.1011
      5 C          -1.5317    1.9340   -0.0000 C.ar    1  UNL1        0.0228
      6 C          -0.1528    1.8684   -0.0000 C.ar    1  UNL1        0.0229
      7 H          -2.2107    1.0914    0.0000 H       1  UNL1        0.0824
      8 H           0.4541    0.9721    0.0000 H       1  UNL1        0.0824
      9 _CN3           1.7181    3.5257   -0.0000 C.3     1  UNL1        0.1306
     10 _CN2          -3.2329    3.8238    0.0000 C.3     1  UNL1        0.1062
     11 _CT2          -4.3327    2.7733   -0.0000 C.3     1  UNL1        0.0245
     12 _CT3          -5.6831    3.4570   -0.0000 C.3     1  UNL1        0.0020
     13 _CT4          -6.7776    2.4110   -0.0000 C.3     1  UNL1        0.0001
@<TRIPOS>BOND
     1     1     2   ar
     2     1     3   ar
     3     1     4    1
     4     3     5   ar
     5     2     6   ar
     6     5     6   ar
     7     5     7    1
     8     6     8    1
     9     2     9    1
    10     3    10    1
    11    10    11    1
    12    11    12    1
    13    12    13    1
