@<TRIPOS>MOLECULE
*****
 10 10 0 0 0
SMALL
GASTEIGER

@<TRIPOS>ATOM
      1 C          -0.9865    3.5235    0.0000 C.ar    1  UNL1        0.0766
      2 N          -2.1041    2.7749    0.0000 N.ar    1  UNL1       -0.3248
      3 N           0.1084    2.7419    0.0000 N.ar    1  UNL1       -0.3248
      4 H          -0.9703    4.6066    0.0000 H       1  UNL1        0.1011
      5 C          -1.7076    1.4881    0.0000 C.ar    1  UNL1        0.0229
      6 C          -0.3263    1.4675    0.0000 C.ar    1  UNL1        0.0229
      7 H          -2.3691    0.6313   -0.0000 H       1  UNL1        0.0824
      8 H           0.3093    0.5914   -0.0000 H       1  UNL1        0.0824
      9 _CN3           1.4905    3.1862    0.0000 C.3     1  UNL1        0.1306
     10 _CT4          -3.4724    3.2602    0.0000 C.3     1  UNL1        0.1306
@<TRIPOS>BOND
     1     1     2   ar
     2     1     3   ar
     3     1     4    1
     4     2     5   ar
     5     3     6   ar
     6     5     6   ar
     7     5     7    1
     8     6     8    1
     9     3     9    1
    10     2    10    1
