@<TRIPOS>MOLECULE
*****
 11 11 0 0 0
SMALL
GASTEIGER

@<TRIPOS>ATOM
      1 C          -0.9742    3.7443   -0.0000 C.ar    1  UNL1        0.0765
      2 N           0.1290    2.9751   -0.0000 N.ar    1  UNL1       -0.3248
      3 N          -2.0892    2.9892   -0.0000 N.ar    1  UNL1       -0.3268
      4 H          -0.9662    4.8277   -0.0000 H       1  UNL1        0.1011
      5 C          -1.6712    1.7027   -0.0000 C.ar    1  UNL1        0.0228
      6 C          -0.2907    1.6973   -0.0000 C.ar    1  UNL1        0.0229
      7 H          -2.3127    0.8311   -0.0000 H       1  UNL1        0.0824
      8 H           0.3547    0.8284   -0.0000 H       1  UNL1        0.0824
      9 _CN3           1.5061    3.4348   -0.0000 C.3     1  UNL1        0.1306
     10 _CN2          -3.4535    3.5167   -0.0000 C.3     1  UNL1        0.1063
     11 _CT4          -4.5075    2.4200   -0.0000 C.3     1  UNL1        0.0265
@<TRIPOS>BOND
     1     1     2   ar
     2     1     3   ar
     3     1     4    1
     4     3     5   ar
     5     2     6   ar
     6     5     6   ar
     7     5     7    1
     8     6     8    1
     9     2     9    1
    10     3    10    1
    11    10    11    1
