@<TRIPOS>MOLECULE
*****
 9 8 0 0 0
SMALL
GASTEIGER

@<TRIPOS>ATOM
      1 N          -2.2385    1.8608    0.8874 N.3     1  UNL1        0.0622
      2 S          -3.8994    2.0079    0.3021 S.O2    1  UNL1        0.0788
      3 S          -1.3215    0.9829   -0.3401 S.O2    1  UNL1        0.0788
      4 _CF3          -4.8271    0.4826   -0.0226 C.3     1  UNL1        0.1994
      5 _CF3           0.4261    0.5186   -0.2018 C.3     1  UNL1        0.1994
      6 O          -3.8225    2.9566   -0.9039 O.2     1  UNL1       -0.1546
      7 O          -4.5897    2.8928    1.3503 O.2     1  UNL1       -0.1546
      8 O          -0.4369    2.2147   -0.0969 O.2     1  UNL1       -0.1546
      9 O          -1.0650    0.1412    0.9188 O.2     1  UNL1       -0.1546
@<TRIPOS>BOND
     1     1     2    1
     2     1     3    1
     3     2     4    1
     4     3     5    1
     5     2     6    2
     6     2     7    2
     7     3     8    2
     8     3     9    2
